Circuit: * D:\Work and Coper Onion\AutoLab\LTSpice\ADC_DC_Offset_Pressure_Sensor.asc

Direct Newton iteration failed to find .op point.  (Use ".option noopiter" to skip.)
Starting Gmin stepping
Gmin = 10
Gmin = 1.07374
Gmin = 0.115292
Gmin = 0.0123794
Gmin = 0.00132923
Gmin = 0.000142725
Gmin = 1.5325e-05
Gmin = 1.6455e-06
Gmin = 1.76685e-07
Gmin = 1.89714e-08
Gmin = 2.03704e-09
Gmin = 2.18725e-10
Gmin = 2.34854e-11
Gmin = 2.52173e-12
Gmin = 2.70769e-13
Gmin = 0
Gmin stepping succeeded in finding the operating point.


vsigmax: MAX(v(vsigout))=2.08549 FROM 0 TO 0.002
vsigmin: MIN(v(vsigout))=1.39901 FROM 0 TO 0.002


Date: Tue Dec 31 12:35:17 2024
Total elapsed time: 0.153 seconds.

tnom = 27
temp = 27
method = modified trap
totiter = 2689
traniter = 2082
tranpoints = 1042
accept = 1042
rejected = 0
matrix size = 125
fillins = 106
solver = Normal
Avg thread counts: 1.5/1.9/1.9/1.5
Matrix Compiler1: 15.07 KB object code size  2.6/1.6/[0.9]
Matrix Compiler2: 12.67 KB object code size  1.3/1.8/[0.7]

